4
Lattice="1.9253163657786472 -3.334745766172482 -8.235400699298698e-18 1.9253163657786474 3.334745766172482 8.235400699298696e-18 -4.001274759035995e-34 1.5847845675682964e-17 6.341809083811466" Properties=species:S:1:pos:R:3 cutoff=-1.0 nneightol=1.2 n_minim_iter=4 pbc="T T T"
Si       1.92531637       1.11158192       0.39708373
Si       1.92531637      -1.11158192       3.56798827
Si       1.92531637       1.11158192       2.77382081
Si       1.92531637      -1.11158192      -0.39708373
