8
Lattice="-3.3540578638269465 3.354057863826947 3.354057863826946 3.3540578638269465 -3.354057863826947 3.354057863826947 3.3540578638269465 3.3540578638269465 -3.3540578638269465" Properties=species:S:1:pos:R:3 cutoff=-1.0 nneightol=1.2 n_minim_iter=5 pbc="T T T"
Si       2.67399454       0.68006332      -0.68006332
Si       4.03412118      -0.68006332       0.68006332
Si       0.68006332       0.68006332       0.68006332
Si       0.68006332      -0.68006332       2.67399455
Si      -0.68006332       2.67399454       0.68006332
Si       0.68006332       4.03412118      -0.68006332
Si      -0.68006332       0.68006332       4.03412118
Si       2.67399454       2.67399454       2.67399455
