2
Lattice="3.1136326660775993 -6.473269986476188e-99 -2.1024007706983772e-49 -3.343861707499609e-98 3.1136326660775993 5.413234777349913e-49 -2.0347992752457496e-49 -9.037019179146363e-50 3.1136326660775993" Properties=species:S:1:pos:R:3 n_minim_iter=2 pbc="T T T"
Si       0.00000000       0.00000000       0.00000000
Si       1.55681633       1.55681633       1.55681633
